<?xml version="1.0" encoding="UTF-8"?>

<!-- generated on 2025-04-12 16:57:25 by Eclipse SUMO netedit Version 1.22.0
<neteditConfiguration xmlns:xsi="http://www.w3.org/2001/XMLSchema-instance" xsi:noNamespaceSchemaLocation="http://sumo.dlr.de/xsd/neteditConfiguration.xsd">

    <input>
        <sumo-net-file value="C:\Users\Rajat\Desktop\minorcode\simplenet.net.xml"/>
        <sumocfg-file value="C:\Users\Rajat\Desktop\minorcode\net.sumocfg"/>
        <route-files value = "C:\Users\Rajat\Desktop\minorcode\net.rou.xml"/>
    </input>

    <output>
        <output-file value="C:\Users\Rajat\Desktop\minorcode\simplenet.net.xml"/>
    </output>

    <processing>
        <geometry.min-radius.fix.railways value="false"/>
        <geometry.max-grade.fix value="false"/>
        <offset.disable-normalization value="true"/>
        <lefthand value="0"/>
    </processing>

    <junctions>
        <no-turnarounds value="true"/>
        <junctions.corner-detail value="5"/>
        <junctions.limit-turn-speed value="5.50"/>
        <rectangular-lane-cut value="0"/>
    </junctions>

    <pedestrian>
        <walkingareas value="0"/>
    </pedestrian>

</neteditConfiguration>
-->

<net version="1.20" junctionCornerDetail="5" limitTurnSpeed="5.50" xmlns:xsi="http://www.w3.org/2001/XMLSchema-instance" xsi:noNamespaceSchemaLocation="http://sumo.dlr.de/xsd/net_file.xsd">

    <location netOffset="0.00,0.00" convBoundary="-74.55,-68.79,72.39,71.97" origBoundary="0.00,0.00,400.00,400.00" projParameter="!"/>

    <edge id=":A0_0" function="internal">
        <lane id=":A0_0_0" index="0" speed="6.55" length="9.10" shape="7.24,1.57 4.77,1.93 3.00,2.99 1.94,4.75 1.58,7.22"/>
    </edge>
    <edge id=":A0_1" function="internal">
        <lane id=":A0_1_0" index="0" speed="13.89" length="14.45" shape="7.24,1.57 -7.21,1.61"/>
    </edge>
    <edge id=":A0_2" function="internal">
        <lane id=":A0_2_0" index="0" speed="7.98" length="14.23" shape="7.24,1.57 3.37,1.03 0.62,-0.61 -1.03,-3.37 -1.56,-7.24"/>
    </edge>
    <edge id=":A0_3" function="internal">
        <lane id=":A0_3_0" index="0" speed="6.49" length="9.03" shape="1.64,-7.22 1.98,-4.77 3.02,-3.02 4.77,-1.97 7.22,-1.63"/>
    </edge>
    <edge id=":A0_4" function="internal">
        <lane id=":A0_4_0" index="0" speed="13.89" length="14.44" shape="1.64,-7.22 1.58,7.22"/>
    </edge>
    <edge id=":A0_5" function="internal">
        <lane id=":A0_5_0" index="0" speed="8.03" length="14.24" shape="1.64,-7.22 1.07,-3.36 -0.60,-0.60 -3.36,1.05 -7.21,1.61"/>
    </edge>
    <edge id=":A0_6" function="internal">
        <lane id=":A0_6_0" index="0" speed="6.55" length="9.10" shape="-7.22,-1.59 -4.75,-1.95 -2.99,-3.01 -1.93,-4.77 -1.56,-7.24"/>
    </edge>
    <edge id=":A0_7" function="internal">
        <lane id=":A0_7_0" index="0" speed="13.89" length="14.44" shape="-7.22,-1.59 7.22,-1.63"/>
    </edge>
    <edge id=":A0_8" function="internal">
        <lane id=":A0_8_0" index="0" speed="7.99" length="14.21" shape="-7.22,-1.59 -3.36,-1.04 -0.61,0.61 1.04,3.36 1.58,7.22"/>
    </edge>
    <edge id=":A0_9" function="internal">
        <lane id=":A0_9_0" index="0" speed="6.50" length="9.03" shape="-1.62,7.21 -1.96,4.76 -3.01,3.01 -4.76,1.96 -7.21,1.61"/>
    </edge>
    <edge id=":A0_10" function="internal">
        <lane id=":A0_10_0" index="0" speed="13.89" length="14.45" shape="-1.62,7.21 -1.56,-7.24"/>
    </edge>
    <edge id=":A0_11" function="internal">
        <lane id=":A0_11_0" index="0" speed="8.03" length="14.24" shape="-1.62,7.21 -1.06,3.36 0.60,0.60 3.36,-1.07 7.22,-1.63"/>
    </edge>

    <edge id="-E0" from="J0" to="A0" priority="-1">
        <lane id="-E0_0" index="0" speed="13.89" length="61.56" shape="1.97,-68.78 1.64,-7.22"/>
    </edge>
    <edge id="-E1" from="J1" to="A0" priority="-1">
        <lane id="-E1_0" index="0" speed="13.89" length="67.34" shape="-74.55,-1.49 -7.22,-1.59"/>
    </edge>
    <edge id="A0A1" from="A0" to="A1" priority="-1">
        <lane id="A0A1_0" index="0" speed="13.89" length="64.76" shape="1.58,7.22 1.42,71.97"/>
    </edge>
    <edge id="A0B0" from="A0" to="B0" priority="-1">
        <lane id="A0B0_0" index="0" speed="13.89" length="65.16" shape="7.22,-1.63 72.38,-1.94"/>
    </edge>
    <edge id="A1A0" from="A1" to="A0" priority="-1">
        <lane id="A1A0_0" index="0" speed="13.89" length="64.76" shape="-1.78,71.97 -1.62,7.21"/>
    </edge>
    <edge id="B0A0" from="B0" to="A0" priority="-1">
        <lane id="B0A0_0" index="0" speed="13.89" length="65.16" shape="72.40,1.26 7.24,1.57"/>
    </edge>
    <edge id="E0" from="A0" to="J0" priority="-1">
        <lane id="E0_0" index="0" speed="13.89" length="61.56" shape="-1.56,-7.24 -1.23,-68.80"/>
    </edge>
    <edge id="E1" from="A0" to="J1" priority="-1">
        <lane id="E1_0" index="0" speed="13.89" length="67.34" shape="-7.21,1.61 -74.55,1.71"/>
    </edge>

    <tlLogic id="A0" type="static" programID="0" offset="0">
        <phase duration="42" state="rrrrrrGGGrrr"/>
        <phase duration="3"  state="rrrrrryyyrrr"/>
        <phase duration="42" state="GGGrrrrrrrrr"/>
        <phase duration="3"  state="yyyrrrrrrrrr"/>
        <phase duration="42" state="rrrGGGrrrrrr"/>
        <phase duration="3"  state="rrryyyrrrrrr"/>
        <phase duration="42" state="rrrrrrrrrGGG"/>
        <phase duration="3"  state="rrrrrrrrryyy"/>
    </tlLogic>

    <junction id="A0" type="traffic_light" x="0.00" y="0.00" incLanes="B0A0_0 -E0_0 -E1_0 A1A0_0" intLanes=":A0_0_0 :A0_1_0 :A0_2_0 :A0_3_0 :A0_4_0 :A0_5_0 :A0_6_0 :A0_7_0 :A0_8_0 :A0_9_0 :A0_10_0 :A0_11_0" shape="7.25,3.17 7.22,-3.23 5.00,-3.67 4.22,-4.22 3.67,-4.99 3.34,-5.99 3.24,-7.22 -3.16,-7.25 -3.62,-5.00 -4.19,-4.21 -4.97,-3.64 -5.98,-3.30 -7.22,-3.19 -7.21,3.21 -4.99,3.65 -4.21,4.21 -3.66,4.98 -3.33,5.98 -3.22,7.20 3.18,7.22 3.64,4.98 4.20,4.19 4.99,3.62 6.01,3.28">
        <request index="0"  response="000000010000" foes="000100010000" cont="0"/>
        <request index="1"  response="111000110000" foes="111100110000" cont="0"/>
        <request index="2"  response="110011110000" foes="110111110000" cont="0"/>
        <request index="3"  response="000000000000" foes="100010000000" cont="0"/>
        <request index="4"  response="000000000000" foes="100110000111" cont="0"/>
        <request index="5"  response="111000000000" foes="111110000110" cont="0"/>
        <request index="6"  response="010000000000" foes="010000000100" cont="0"/>
        <request index="7"  response="110000111000" foes="110000111100" cont="0"/>
        <request index="8"  response="110000110111" foes="110000110111" cont="0"/>
        <request index="9"  response="000000000000" foes="000000100010" cont="0"/>
        <request index="10" response="000000000000" foes="000111100110" cont="0"/>
        <request index="11" response="000000011000" foes="000110111110" cont="0"/>
    </junction>
    <junction id="A1" type="dead_end" x="-0.18" y="71.97" incLanes="A0A1_0" intLanes="" shape="-0.18,71.97 3.02,71.98 -0.18,71.97"/>
    <junction id="B0" type="dead_end" x="72.39" y="-0.34" incLanes="A0B0_0" intLanes="" shape="72.39,-0.34 72.37,-3.54 72.39,-0.34"/>
    <junction id="J0" type="dead_end" x="0.37" y="-68.79" incLanes="E0_0" intLanes="" shape="0.37,-68.79 -2.83,-68.81 0.37,-68.79"/>
    <junction id="J1" type="dead_end" x="-74.55" y="0.11" incLanes="E1_0" intLanes="" shape="-74.55,0.11 -74.55,3.31 -74.55,0.11"/>

    <connection from="-E0" to="A0B0" fromLane="0" toLane="0" via=":A0_3_0" tl="A0" linkIndex="3" dir="r" state="O"/>
    <connection from="-E0" to="A0A1" fromLane="0" toLane="0" via=":A0_4_0" tl="A0" linkIndex="4" dir="s" state="O"/>
    <connection from="-E0" to="E1" fromLane="0" toLane="0" via=":A0_5_0" tl="A0" linkIndex="5" dir="l" state="o"/>
    <connection from="-E1" to="E0" fromLane="0" toLane="0" via=":A0_6_0" tl="A0" linkIndex="6" dir="r" state="o"/>
    <connection from="-E1" to="A0B0" fromLane="0" toLane="0" via=":A0_7_0" tl="A0" linkIndex="7" dir="s" state="o"/>
    <connection from="-E1" to="A0A1" fromLane="0" toLane="0" via=":A0_8_0" tl="A0" linkIndex="8" dir="l" state="o"/>
    <connection from="A1A0" to="E1" fromLane="0" toLane="0" via=":A0_9_0" tl="A0" linkIndex="9" dir="r" state="O"/>
    <connection from="A1A0" to="E0" fromLane="0" toLane="0" via=":A0_10_0" tl="A0" linkIndex="10" dir="s" state="O"/>
    <connection from="A1A0" to="A0B0" fromLane="0" toLane="0" via=":A0_11_0" tl="A0" linkIndex="11" dir="l" state="o"/>
    <connection from="B0A0" to="A0A1" fromLane="0" toLane="0" via=":A0_0_0" tl="A0" linkIndex="0" dir="r" state="o"/>
    <connection from="B0A0" to="E1" fromLane="0" toLane="0" via=":A0_1_0" tl="A0" linkIndex="1" dir="s" state="o"/>
    <connection from="B0A0" to="E0" fromLane="0" toLane="0" via=":A0_2_0" tl="A0" linkIndex="2" dir="l" state="o"/>

    <connection from=":A0_0" to="A0A1" fromLane="0" toLane="0" dir="r" state="M"/>
    <connection from=":A0_1" to="E1" fromLane="0" toLane="0" dir="s" state="M"/>
    <connection from=":A0_2" to="E0" fromLane="0" toLane="0" dir="l" state="M"/>
    <connection from=":A0_3" to="A0B0" fromLane="0" toLane="0" dir="r" state="M"/>
    <connection from=":A0_4" to="A0A1" fromLane="0" toLane="0" dir="s" state="M"/>
    <connection from=":A0_5" to="E1" fromLane="0" toLane="0" dir="l" state="M"/>
    <connection from=":A0_6" to="E0" fromLane="0" toLane="0" dir="r" state="M"/>
    <connection from=":A0_7" to="A0B0" fromLane="0" toLane="0" dir="s" state="M"/>
    <connection from=":A0_8" to="A0A1" fromLane="0" toLane="0" dir="l" state="M"/>
    <connection from=":A0_9" to="E1" fromLane="0" toLane="0" dir="r" state="M"/>
    <connection from=":A0_10" to="E0" fromLane="0" toLane="0" dir="s" state="M"/>
    <connection from=":A0_11" to="A0B0" fromLane="0" toLane="0" dir="l" state="M"/>

</net>
